/*--------------------------------*- C++ -*----------------------------------*\
  =========                 |
  \\      /  F ield         | OpenFOAM: The Open Source CFD Toolbox
   \\    /   O peration     | Website:  https://openfoam.org
    \\  /    A nd           | Version:  7
     \\/     M anipulation  |
\*---------------------------------------------------------------------------*/
FoamFile
{
    version     2.0;
    format      ascii;
    class       polyBoundaryMesh;
    location    "constant/polyMesh";
    object      boundary;
}
// * * * * * * * * * * * * * * * * * * * * * * * * * * * * * * * * * * * * * //

5
(
    lowerWall
    {
        type            wall;
        inGroups        List<word> 1(wall);
        nFaces          544;
        startFace       55544;
    }
    upperWall
    {
        type            patch;
        nFaces          368;
        startFace       56088;
    }
    leftWall
    {
        type            patch;
        nFaces          64;
        startFace       56456;
    }
    rightWall
    {
        type            patch;
        nFaces          64;
        startFace       56520;
    }
    defaultFaces
    {
        type            empty;
        inGroups        List<word> 1(empty);
        nFaces          56064;
        startFace       56584;
    }
)

// ************************************************************************* //
